
  -OEChem-01272017223D

  8  7  0     0  0  0  0  0  0999 V2000
    0.6294   -0.0953    0.8795 C   0  0  0  0  0  0  0  0  0  0  0  0
   -0.8213    0.2150    1.2389 C   0  0  0  0  0  0  0  0  0  0  0  0
   -1.3898    0.5356    0.3592 H   0  0  0  0  0  0  0  0  0  0  0  0
   -0.8847    1.0159    1.9833 H   0  0  0  0  0  0  0  0  0  0  0  0
   -1.3253   -0.6637    1.6555 H   0  0  0  0  0  0  0  0  0  0  0  0
    1.1334    0.7834    0.4631 H   0  0  0  0  0  0  0  0  0  0  0  0
    0.6928   -0.8963    0.1351 H   0  0  0  0  0  0  0  0  0  0  0  0
    1.1978   -0.4162    1.7590 H   0  0  0  0  0  0  0  0  0  0  0  0
  1  2  1  0  0  0  0
  1  6  1  0  0  0  0
  1  7  1  0  0  0  0
  1  8  1  0  0  0  0
  2  3  1  0  0  0  0
  2  4  1  0  0  0  0
  2  5  1  0  0  0  0
M  END
> <NNP_Energy_kcal_mol>
-50076.2

> <NNP_Energy_status>
Status.GRADIENT_CONVERGED, Status.GEOMETRY_CONVERGED, Status.ENERGY_CONVERGED, Status.ALL_CONVERGED

> <NNP_STEPS>
25

> <NNP_Energy_stdev_kcal_mol>
0.2

> <NNP_Force_kcal_mol_A>
[-0.006,0.003,0.016,-0.002,-0.014,0.003,0.018,0.009,0.032,-0.011,0.01,-0.021,0.01,-0.002,-0.008,-0.003,0.001,-0.014,0.004,-0.005,-0.017,-0.01,-0.002,0.008]

$$$$
